<?xml version="1.0" encoding="UTF-8"?>

<!-- generated on 2023년 10월 27일 (금) 오후 09시 06분 20초 by Eclipse SUMO netedit Version 1.8.0
<configuration xmlns:xsi="http://www.w3.org/2001/XMLSchema-instance" xsi:noNamespaceSchemaLocation="http://sumo.dlr.de/xsd/netconvertConfiguration.xsd">

    <input>
        <sumo-net-file value="/home/jwl/sumoproject/10x10grid.net.xml"/>
    </input>

    <output>
        <output-file value="/home/jwl/sumoproject/10x10grid.net.xml"/>
    </output>

    <processing>
        <geometry.min-radius.fix.railways value="false"/>
        <geometry.max-grade.fix value="false"/>
        <offset.disable-normalization value="true"/>
        <lefthand value="false"/>
    </processing>

    <junctions>
        <no-turnarounds value="true"/>
        <junctions.corner-detail value="5"/>
        <junctions.limit-turn-speed value="5.5"/>
        <rectangular-lane-cut value="false"/>
    </junctions>

    <pedestrian>
        <walkingareas value="false"/>
    </pedestrian>

    <netedit>
        <additional-files value="/home/jwl/sumoproject/add.add.xml"/>
    </netedit>

    <report>
        <aggregate-warnings value="5"/>
    </report>

</configuration>
-->

<net version="1.6" junctionCornerDetail="5" limitTurnSpeed="5.50" xmlns:xsi="http://www.w3.org/2001/XMLSchema-instance" xsi:noNamespaceSchemaLocation="http://sumo.dlr.de/xsd/net_file.xsd">

    <location netOffset="0.00,0.00" convBoundary="0.00,0.00,450.00,450.00" origBoundary="-10000000000.00,-10000000000.00,10000000000.00,10000000000.00" projParameter="!"/>

    <edge id=":A10_0" function="internal">
        <lane id=":A10_0_0" index="0" disallow="pedestrian" speed="6.51" length="9.03" shape="446.00,-1.60 448.45,-1.25 450.20,-0.20 451.25,1.55 451.60,4.00"/>
    </edge>
    <edge id=":A2_0" function="internal">
        <lane id=":A2_0_0" index="0" disallow="pedestrian" speed="13.89" length="13.20" shape="46.00,-1.60 59.20,-1.60"/>
    </edge>
    <edge id=":A2_1" function="internal">
        <lane id=":A2_1_0" index="0" disallow="pedestrian" speed="6.51" length="9.03" shape="46.00,-1.60 48.45,-1.25 50.20,-0.20 51.25,1.55 51.60,4.00"/>
    </edge>
    <edge id=":A3_0" function="internal">
        <lane id=":A3_0_0" index="0" disallow="pedestrian" speed="13.89" length="11.20" shape="96.00,-1.60 107.20,-1.60"/>
    </edge>
    <edge id=":A3_1" function="internal">
        <lane id=":A3_1_0" index="0" disallow="pedestrian" speed="6.51" length="9.03" shape="96.00,-1.60 98.45,-1.25 100.20,-0.20 101.25,1.55 101.60,4.00"/>
    </edge>
    <edge id=":A4_0" function="internal">
        <lane id=":A4_0_0" index="0" disallow="pedestrian" speed="13.89" length="11.20" shape="146.00,-1.60 157.20,-1.60"/>
    </edge>
    <edge id=":A4_1" function="internal">
        <lane id=":A4_1_0" index="0" disallow="pedestrian" speed="6.51" length="9.03" shape="146.00,-1.60 148.45,-1.25 150.20,-0.20 151.25,1.55 151.60,4.00"/>
    </edge>
    <edge id=":A5_0" function="internal">
        <lane id=":A5_0_0" index="0" disallow="pedestrian" speed="13.89" length="11.20" shape="196.00,-1.60 207.20,-1.60"/>
    </edge>
    <edge id=":A5_1" function="internal">
        <lane id=":A5_1_0" index="0" disallow="pedestrian" speed="6.51" length="9.03" shape="196.00,-1.60 198.45,-1.25 200.20,-0.20 201.25,1.55 201.60,4.00"/>
    </edge>
    <edge id=":A6_0" function="internal">
        <lane id=":A6_0_0" index="0" disallow="pedestrian" speed="13.89" length="11.20" shape="246.00,-1.60 257.20,-1.60"/>
    </edge>
    <edge id=":A6_1" function="internal">
        <lane id=":A6_1_0" index="0" disallow="pedestrian" speed="6.51" length="9.03" shape="246.00,-1.60 248.45,-1.25 250.20,-0.20 251.25,1.55 251.60,4.00"/>
    </edge>
    <edge id=":A7_0" function="internal">
        <lane id=":A7_0_0" index="0" disallow="pedestrian" speed="13.89" length="11.20" shape="296.00,-1.60 307.20,-1.60"/>
    </edge>
    <edge id=":A7_1" function="internal">
        <lane id=":A7_1_0" index="0" disallow="pedestrian" speed="6.51" length="9.03" shape="296.00,-1.60 298.45,-1.25 300.20,-0.20 301.25,1.55 301.60,4.00"/>
    </edge>
    <edge id=":A8_0" function="internal">
        <lane id=":A8_0_0" index="0" disallow="pedestrian" speed="13.89" length="11.20" shape="346.00,-1.60 357.20,-1.60"/>
    </edge>
    <edge id=":A8_1" function="internal">
        <lane id=":A8_1_0" index="0" disallow="pedestrian" speed="6.51" length="9.03" shape="346.00,-1.60 348.45,-1.25 350.20,-0.20 351.25,1.55 351.60,4.00"/>
    </edge>
    <edge id=":A9_0" function="internal">
        <lane id=":A9_0_0" index="0" disallow="pedestrian" speed="13.89" length="11.20" shape="396.00,-1.60 407.20,-1.60"/>
    </edge>
    <edge id=":A9_1" function="internal">
        <lane id=":A9_1_0" index="0" disallow="pedestrian" speed="6.51" length="9.03" shape="396.00,-1.60 398.45,-1.25 400.20,-0.20 401.25,1.55 401.60,4.00"/>
    </edge>
    <edge id=":B1_0" function="internal">
        <lane id=":B1_0_0" index="0" disallow="pedestrian" speed="6.51" length="9.03" shape="1.60,42.80 1.95,45.25 3.00,47.00 4.75,48.05 7.20,48.40"/>
    </edge>
    <edge id=":B1_1" function="internal">
        <lane id=":B1_1_0" index="0" disallow="pedestrian" speed="13.89" length="9.20" shape="1.60,42.80 1.60,52.00"/>
    </edge>
    <edge id=":B10_0" function="internal">
        <lane id=":B10_0_0" index="0" speed="13.89" length="11.20" shape="451.60,42.80 451.60,54.00"/>
    </edge>
    <edge id=":B10_1" function="internal">
        <lane id=":B10_1_0" index="0" speed="6.51" length="4.28" shape="446.00,48.40 448.45,48.75 450.00,49.68"/>
    </edge>
    <edge id=":B10_2" function="internal">
        <lane id=":B10_2_0" index="0" speed="6.51" length="4.75" shape="450.00,49.68 450.20,49.80 451.25,51.55 451.60,54.00"/>
    </edge>
    <edge id=":B2_0" function="internal">
        <lane id=":B2_0_0" index="0" allow="pedestrian" speed="4.80" length="4.84" width="2.00" shape="54.20,42.80 54.39,44.11 54.95,45.05 55.89,45.61 57.20,45.80"/>
    </edge>
    <edge id=":B2_1" function="internal">
        <lane id=":B2_1_0" index="0" allow="pedestrian" speed="13.89" length="9.20" width="2.00" shape="54.20,42.80 54.20,52.00"/>
        <lane id=":B2_1_1" index="1" disallow="pedestrian" speed="13.89" length="9.20" shape="51.60,42.80 51.60,52.00"/>
    </edge>
    <edge id=":B2_3" function="internal">
        <lane id=":B2_3_0" index="0" allow="pedestrian" speed="13.89" length="9.20" width="2.00" shape="48.00,45.80 57.20,45.80"/>
        <lane id=":B2_3_1" index="1" disallow="pedestrian" speed="13.89" length="9.20" shape="48.00,48.40 57.20,48.40"/>
    </edge>
    <edge id=":B2_5" function="internal">
        <lane id=":B2_5_0" index="0" disallow="pedestrian" speed="5.37" length="2.09" shape="48.00,48.40 49.57,48.62 50.00,48.88"/>
    </edge>
    <edge id=":B2_6" function="internal">
        <lane id=":B2_6_0" index="0" disallow="pedestrian" speed="5.37" length="3.72" shape="50.00,48.88 50.70,49.30 51.38,50.42 51.60,52.00"/>
    </edge>
    <edge id=":B3_0" function="internal">
        <lane id=":B3_0_0" index="0" disallow="pedestrian" speed="7.48" length="12.26" shape="101.60,40.80 102.08,44.13 103.50,46.50 105.88,47.92 109.20,48.40"/>
    </edge>
    <edge id=":B3_1" function="internal">
        <lane id=":B3_1_0" index="0" disallow="pedestrian" speed="13.89" length="13.20" shape="101.60,40.80 101.60,54.00"/>
    </edge>
    <edge id=":B3_2" function="internal">
        <lane id=":B3_2_0" index="0" disallow="pedestrian" speed="13.89" length="13.20" shape="96.00,48.40 109.20,48.40"/>
    </edge>
    <edge id=":B3_3" function="internal">
        <lane id=":B3_3_0" index="0" disallow="pedestrian" speed="6.51" length="9.03" shape="96.00,48.40 98.45,48.75 100.20,49.80 101.25,51.55 101.60,54.00"/>
    </edge>
    <edge id=":B4_0" function="internal">
        <lane id=":B4_0_0" index="0" disallow="pedestrian" speed="6.51" length="9.03" shape="151.60,42.80 151.95,45.25 153.00,47.00 154.75,48.05 157.20,48.40"/>
    </edge>
    <edge id=":B4_1" function="internal">
        <lane id=":B4_1_0" index="0" disallow="pedestrian" speed="13.89" length="11.20" shape="151.60,42.80 151.60,54.00"/>
    </edge>
    <edge id=":B4_2" function="internal">
        <lane id=":B4_2_0" index="0" disallow="pedestrian" speed="13.89" length="11.20" shape="146.00,48.40 157.20,48.40"/>
    </edge>
    <edge id=":B4_3" function="internal">
        <lane id=":B4_3_0" index="0" disallow="pedestrian" speed="6.51" length="4.28" shape="146.00,48.40 148.45,48.75 150.00,49.68"/>
    </edge>
    <edge id=":B4_4" function="internal">
        <lane id=":B4_4_0" index="0" disallow="pedestrian" speed="6.51" length="4.75" shape="150.00,49.68 150.20,49.80 151.25,51.55 151.60,54.00"/>
    </edge>
    <edge id=":B5_0" function="internal">
        <lane id=":B5_0_0" index="0" disallow="pedestrian" speed="6.51" length="9.03" shape="201.60,42.80 201.95,45.25 203.00,47.00 204.75,48.05 207.20,48.40"/>
    </edge>
    <edge id=":B5_1" function="internal">
        <lane id=":B5_1_0" index="0" disallow="pedestrian" speed="13.89" length="11.20" shape="201.60,42.80 201.60,54.00"/>
    </edge>
    <edge id=":B5_2" function="internal">
        <lane id=":B5_2_0" index="0" disallow="pedestrian" speed="13.89" length="11.20" shape="196.00,48.40 207.20,48.40"/>
    </edge>
    <edge id=":B5_3" function="internal">
        <lane id=":B5_3_0" index="0" disallow="pedestrian" speed="6.51" length="4.28" shape="196.00,48.40 198.45,48.75 200.00,49.68"/>
    </edge>
    <edge id=":B5_4" function="internal">
        <lane id=":B5_4_0" index="0" disallow="pedestrian" speed="6.51" length="4.75" shape="200.00,49.68 200.20,49.80 201.25,51.55 201.60,54.00"/>
    </edge>
    <edge id=":B6_0" function="internal">
        <lane id=":B6_0_0" index="0" speed="6.51" length="9.03" shape="251.60,42.80 251.95,45.25 253.00,47.00 254.75,48.05 257.20,48.40"/>
    </edge>
    <edge id=":B6_1" function="internal">
        <lane id=":B6_1_0" index="0" speed="13.89" length="11.20" shape="251.60,42.80 251.60,54.00"/>
    </edge>
    <edge id=":B6_2" function="internal">
        <lane id=":B6_2_0" index="0" speed="13.89" length="11.20" shape="246.00,48.40 257.20,48.40"/>
    </edge>
    <edge id=":B6_3" function="internal">
        <lane id=":B6_3_0" index="0" speed="6.51" length="4.28" shape="246.00,48.40 248.45,48.75 250.00,49.68"/>
    </edge>
    <edge id=":B6_4" function="internal">
        <lane id=":B6_4_0" index="0" speed="6.51" length="4.75" shape="250.00,49.68 250.20,49.80 251.25,51.55 251.60,54.00"/>
    </edge>
    <edge id=":B7_0" function="internal">
        <lane id=":B7_0_0" index="0" speed="6.51" length="9.03" shape="301.60,42.80 301.95,45.25 303.00,47.00 304.75,48.05 307.20,48.40"/>
    </edge>
    <edge id=":B7_1" function="internal">
        <lane id=":B7_1_0" index="0" speed="13.89" length="11.20" shape="301.60,42.80 301.60,54.00"/>
    </edge>
    <edge id=":B7_2" function="internal">
        <lane id=":B7_2_0" index="0" speed="13.89" length="11.20" shape="296.00,48.40 307.20,48.40"/>
    </edge>
    <edge id=":B7_3" function="internal">
        <lane id=":B7_3_0" index="0" speed="6.51" length="4.28" shape="296.00,48.40 298.45,48.75 300.00,49.68"/>
    </edge>
    <edge id=":B7_4" function="internal">
        <lane id=":B7_4_0" index="0" speed="6.51" length="4.75" shape="300.00,49.68 300.20,49.80 301.25,51.55 301.60,54.00"/>
    </edge>
    <edge id=":B8_0" function="internal">
        <lane id=":B8_0_0" index="0" speed="6.51" length="9.03" shape="351.60,42.80 351.95,45.25 353.00,47.00 354.75,48.05 357.20,48.40"/>
    </edge>
    <edge id=":B8_1" function="internal">
        <lane id=":B8_1_0" index="0" speed="13.89" length="11.20" shape="351.60,42.80 351.60,54.00"/>
    </edge>
    <edge id=":B8_2" function="internal">
        <lane id=":B8_2_0" index="0" speed="13.89" length="11.20" shape="346.00,48.40 357.20,48.40"/>
    </edge>
    <edge id=":B8_3" function="internal">
        <lane id=":B8_3_0" index="0" speed="6.51" length="4.28" shape="346.00,48.40 348.45,48.75 350.00,49.68"/>
    </edge>
    <edge id=":B8_4" function="internal">
        <lane id=":B8_4_0" index="0" speed="6.51" length="4.75" shape="350.00,49.68 350.20,49.80 351.25,51.55 351.60,54.00"/>
    </edge>
    <edge id=":B9_0" function="internal">
        <lane id=":B9_0_0" index="0" speed="6.51" length="9.03" shape="401.60,42.80 401.95,45.25 403.00,47.00 404.75,48.05 407.20,48.40"/>
    </edge>
    <edge id=":B9_1" function="internal">
        <lane id=":B9_1_0" index="0" speed="13.89" length="11.20" shape="401.60,42.80 401.60,54.00"/>
    </edge>
    <edge id=":B9_2" function="internal">
        <lane id=":B9_2_0" index="0" speed="13.89" length="11.20" shape="396.00,48.40 407.20,48.40"/>
    </edge>
    <edge id=":B9_3" function="internal">
        <lane id=":B9_3_0" index="0" speed="6.51" length="4.28" shape="396.00,48.40 398.45,48.75 400.00,49.68"/>
    </edge>
    <edge id=":B9_4" function="internal">
        <lane id=":B9_4_0" index="0" speed="6.51" length="4.75" shape="400.00,49.68 400.20,49.80 401.25,51.55 401.60,54.00"/>
    </edge>
    <edge id=":C1_0" function="internal">
        <lane id=":C1_0_0" index="0" disallow="pedestrian" speed="7.02" length="10.69" shape="1.60,92.80 2.07,95.25 3.50,97.00 5.87,98.05 9.20,98.40"/>
    </edge>
    <edge id=":C1_1" function="internal">
        <lane id=":C1_1_0" index="0" disallow="pedestrian" speed="13.89" length="11.20" shape="1.60,92.80 1.60,104.00"/>
    </edge>
    <edge id=":C10_0" function="internal">
        <lane id=":C10_0_0" index="0" speed="13.89" length="11.20" shape="451.60,92.80 451.60,104.00"/>
    </edge>
    <edge id=":C10_1" function="internal">
        <lane id=":C10_1_0" index="0" speed="6.51" length="4.28" shape="446.00,98.40 448.45,98.75 450.00,99.68"/>
    </edge>
    <edge id=":C10_2" function="internal">
        <lane id=":C10_2_0" index="0" speed="6.51" length="4.75" shape="450.00,99.68 450.20,99.80 451.25,101.55 451.60,104.00"/>
    </edge>
    <edge id=":C2_0" function="internal">
        <lane id=":C2_0_0" index="0" disallow="pedestrian" speed="6.51" length="9.03" shape="51.60,92.80 51.95,95.25 53.00,97.00 54.75,98.05 57.20,98.40"/>
    </edge>
    <edge id=":C2_1" function="internal">
        <lane id=":C2_1_0" index="0" disallow="pedestrian" speed="13.89" length="9.20" shape="51.60,92.80 51.60,102.00"/>
    </edge>
    <edge id=":C2_2" function="internal">
        <lane id=":C2_2_0" index="0" disallow="pedestrian" speed="13.89" length="9.20" shape="48.00,98.40 57.20,98.40"/>
    </edge>
    <edge id=":C2_3" function="internal">
        <lane id=":C2_3_0" index="0" disallow="pedestrian" speed="5.37" length="5.81" shape="48.00,98.40 49.57,98.62 50.70,99.30 51.38,100.43 51.60,102.00"/>
    </edge>
    <edge id=":C3_0" function="internal">
        <lane id=":C3_0_0" index="0" disallow="pedestrian" speed="6.51" length="9.03" shape="101.60,92.80 101.95,95.25 103.00,97.00 104.75,98.05 107.20,98.40"/>
    </edge>
    <edge id=":C3_1" function="internal">
        <lane id=":C3_1_0" index="0" disallow="pedestrian" speed="13.89" length="9.20" shape="101.60,92.80 101.60,102.00"/>
    </edge>
    <edge id=":C3_2" function="internal">
        <lane id=":C3_2_0" index="0" disallow="pedestrian" speed="13.89" length="9.20" shape="98.00,98.40 107.20,98.40"/>
    </edge>
    <edge id=":C3_3" function="internal">
        <lane id=":C3_3_0" index="0" disallow="pedestrian" speed="5.37" length="2.09" shape="98.00,98.40 99.57,98.62 100.00,98.88"/>
    </edge>
    <edge id=":C3_4" function="internal">
        <lane id=":C3_4_0" index="0" disallow="pedestrian" speed="5.37" length="3.72" shape="100.00,98.88 100.70,99.30 101.38,100.43 101.60,102.00"/>
    </edge>
    <edge id=":C4_0" function="internal">
        <lane id=":C4_0_0" index="0" disallow="pedestrian" speed="7.48" length="12.26" shape="151.60,90.80 152.07,94.13 153.50,96.50 155.88,97.93 159.20,98.40"/>
    </edge>
    <edge id=":C4_1" function="internal">
        <lane id=":C4_1_0" index="0" disallow="pedestrian" speed="13.89" length="13.20" shape="151.60,90.80 151.60,104.00"/>
    </edge>
    <edge id=":C4_2" function="internal">
        <lane id=":C4_2_0" index="0" disallow="pedestrian" speed="13.89" length="13.20" shape="146.00,98.40 159.20,98.40"/>
    </edge>
    <edge id=":C4_3" function="internal">
        <lane id=":C4_3_0" index="0" disallow="pedestrian" speed="6.51" length="9.03" shape="146.00,98.40 148.45,98.75 150.20,99.80 151.25,101.55 151.60,104.00"/>
    </edge>
    <edge id=":C5_0" function="internal">
        <lane id=":C5_0_0" index="0" disallow="pedestrian" speed="6.51" length="9.03" shape="201.60,92.80 201.95,95.25 203.00,97.00 204.75,98.05 207.20,98.40"/>
    </edge>
    <edge id=":C5_1" function="internal">
        <lane id=":C5_1_0" index="0" disallow="pedestrian" speed="13.89" length="11.20" shape="201.60,92.80 201.60,104.00"/>
    </edge>
    <edge id=":C5_2" function="internal">
        <lane id=":C5_2_0" index="0" disallow="pedestrian" speed="13.89" length="11.20" shape="196.00,98.40 207.20,98.40"/>
    </edge>
    <edge id=":C5_3" function="internal">
        <lane id=":C5_3_0" index="0" disallow="pedestrian" speed="6.51" length="4.28" shape="196.00,98.40 198.45,98.75 200.00,99.68"/>
    </edge>
    <edge id=":C5_4" function="internal">
        <lane id=":C5_4_0" index="0" disallow="pedestrian" speed="6.51" length="4.75" shape="200.00,99.68 200.20,99.80 201.25,101.55 201.60,104.00"/>
    </edge>
    <edge id=":C6_0" function="internal">
        <lane id=":C6_0_0" index="0" speed="6.51" length="9.03" shape="251.60,92.80 251.95,95.25 253.00,97.00 254.75,98.05 257.20,98.40"/>
    </edge>
    <edge id=":C6_1" function="internal">
        <lane id=":C6_1_0" index="0" speed="13.89" length="11.20" shape="251.60,92.80 251.60,104.00"/>
    </edge>
    <edge id=":C6_2" function="internal">
        <lane id=":C6_2_0" index="0" speed="13.89" length="11.20" shape="246.00,98.40 257.20,98.40"/>
    </edge>
    <edge id=":C6_3" function="internal">
        <lane id=":C6_3_0" index="0" speed="6.51" length="4.28" shape="246.00,98.40 248.45,98.75 250.00,99.68"/>
    </edge>
    <edge id=":C6_4" function="internal">
        <lane id=":C6_4_0" index="0" speed="6.51" length="4.75" shape="250.00,99.68 250.20,99.80 251.25,101.55 251.60,104.00"/>
    </edge>
    <edge id=":C7_0" function="internal">
        <lane id=":C7_0_0" index="0" speed="6.51" length="9.03" shape="301.60,92.80 301.95,95.25 303.00,97.00 304.75,98.05 307.20,98.40"/>
    </edge>
    <edge id=":C7_1" function="internal">
        <lane id=":C7_1_0" index="0" speed="13.89" length="11.20" shape="301.60,92.80 301.60,104.00"/>
    </edge>
    <edge id=":C7_2" function="internal">
        <lane id=":C7_2_0" index="0" speed="13.89" length="11.20" shape="296.00,98.40 307.20,98.40"/>
    </edge>
    <edge id=":C7_3" function="internal">
        <lane id=":C7_3_0" index="0" speed="6.51" length="4.28" shape="296.00,98.40 298.45,98.75 300.00,99.68"/>
    </edge>
    <edge id=":C7_4" function="internal">
        <lane id=":C7_4_0" index="0" speed="6.51" length="4.75" shape="300.00,99.68 300.20,99.80 301.25,101.55 301.60,104.00"/>
    </edge>
    <edge id=":C8_0" function="internal">
        <lane id=":C8_0_0" index="0" speed="6.51" length="9.03" shape="351.60,92.80 351.95,95.25 353.00,97.00 354.75,98.05 357.20,98.40"/>
    </edge>
    <edge id=":C8_1" function="internal">
        <lane id=":C8_1_0" index="0" speed="13.89" length="11.20" shape="351.60,92.80 351.60,104.00"/>
    </edge>
    <edge id=":C8_2" function="internal">
        <lane id=":C8_2_0" index="0" speed="13.89" length="11.20" shape="346.00,98.40 357.20,98.40"/>
    </edge>
    <edge id=":C8_3" function="internal">
        <lane id=":C8_3_0" index="0" speed="6.51" length="4.28" shape="346.00,98.40 348.45,98.75 350.00,99.68"/>
    </edge>
    <edge id=":C8_4" function="internal">
        <lane id=":C8_4_0" index="0" speed="6.51" length="4.75" shape="350.00,99.68 350.20,99.80 351.25,101.55 351.60,104.00"/>
    </edge>
    <edge id=":C9_0" function="internal">
        <lane id=":C9_0_0" index="0" speed="6.51" length="9.03" shape="401.60,92.80 401.95,95.25 403.00,97.00 404.75,98.05 407.20,98.40"/>
    </edge>
    <edge id=":C9_1" function="internal">
        <lane id=":C9_1_0" index="0" speed="13.89" length="11.20" shape="401.60,92.80 401.60,104.00"/>
    </edge>
    <edge id=":C9_2" function="internal">
        <lane id=":C9_2_0" index="0" speed="13.89" length="11.20" shape="396.00,98.40 407.20,98.40"/>
    </edge>
    <edge id=":C9_3" function="internal">
        <lane id=":C9_3_0" index="0" speed="6.51" length="4.28" shape="396.00,98.40 398.45,98.75 400.00,99.68"/>
    </edge>
    <edge id=":C9_4" function="internal">
        <lane id=":C9_4_0" index="0" speed="6.51" length="4.75" shape="400.00,99.68 400.20,99.80 401.25,101.55 401.60,104.00"/>
    </edge>
    <edge id=":D1_0" function="internal">
        <lane id=":D1_0_0" index="0" disallow="pedestrian" speed="5.99" length="7.49" shape="1.60,144.80 1.95,146.38 3.00,147.50 4.75,148.18 7.20,148.40"/>
    </edge>
    <edge id=":D1_1" function="internal">
        <lane id=":D1_1_0" index="0" disallow="pedestrian" speed="13.89" length="7.20" shape="1.60,144.80 1.60,152.00"/>
    </edge>
    <edge id=":D10_0" function="internal">
        <lane id=":D10_0_0" index="0" speed="13.89" length="11.20" shape="451.60,142.80 451.60,154.00"/>
    </edge>
    <edge id=":D10_1" function="internal">
        <lane id=":D10_1_0" index="0" speed="6.51" length="4.28" shape="446.00,148.40 448.45,148.75 450.00,149.68"/>
    </edge>
    <edge id=":D10_2" function="internal">
        <lane id=":D10_2_0" index="0" speed="6.51" length="4.75" shape="450.00,149.68 450.20,149.80 451.25,151.55 451.60,154.00"/>
    </edge>
    <edge id=":D2_0" function="internal">
        <lane id=":D2_0_0" index="0" disallow="pedestrian" speed="6.51" length="9.03" shape="51.60,142.80 51.95,145.25 53.00,147.00 54.75,148.05 57.20,148.40"/>
    </edge>
    <edge id=":D2_1" function="internal">
        <lane id=":D2_1_0" index="0" disallow="pedestrian" speed="13.89" length="11.20" shape="51.60,142.80 51.60,154.00"/>
    </edge>
    <edge id=":D2_2" function="internal">
        <lane id=":D2_2_0" index="0" disallow="pedestrian" speed="13.89" length="11.20" shape="46.00,148.40 57.20,148.40"/>
    </edge>
    <edge id=":D2_3" function="internal">
        <lane id=":D2_3_0" index="0" disallow="pedestrian" speed="6.51" length="4.28" shape="46.00,148.40 48.45,148.75 50.00,149.68"/>
    </edge>
    <edge id=":D2_4" function="internal">
        <lane id=":D2_4_0" index="0" disallow="pedestrian" speed="6.51" length="4.75" shape="50.00,149.68 50.20,149.80 51.25,151.55 51.60,154.00"/>
    </edge>
    <edge id=":D3_0" function="internal">
        <lane id=":D3_0_0" index="0" disallow="pedestrian" speed="6.51" length="9.03" shape="101.60,142.80 101.95,145.25 103.00,147.00 104.75,148.05 107.20,148.40"/>
    </edge>
    <edge id=":D3_1" function="internal">
        <lane id=":D3_1_0" index="0" disallow="pedestrian" speed="13.89" length="9.20" shape="101.60,142.80 101.60,152.00"/>
    </edge>
    <edge id=":D3_2" function="internal">
        <lane id=":D3_2_0" index="0" disallow="pedestrian" speed="13.89" length="9.20" shape="98.00,148.40 107.20,148.40"/>
    </edge>
    <edge id=":D3_3" function="internal">
        <lane id=":D3_3_0" index="0" disallow="pedestrian" speed="5.37" length="5.81" shape="98.00,148.40 99.57,148.62 100.70,149.30 101.38,150.43 101.60,152.00"/>
    </edge>
    <edge id=":D4_0" function="internal">
        <lane id=":D4_0_0" index="0" disallow="pedestrian" speed="6.51" length="9.03" shape="151.60,142.80 151.95,145.25 153.00,147.00 154.75,148.05 157.20,148.40"/>
    </edge>
    <edge id=":D4_1" function="internal">
        <lane id=":D4_1_0" index="0" disallow="pedestrian" speed="13.89" length="9.20" shape="151.60,142.80 151.60,152.00"/>
    </edge>
    <edge id=":D4_2" function="internal">
        <lane id=":D4_2_0" index="0" disallow="pedestrian" speed="13.89" length="9.20" shape="148.00,148.40 157.20,148.40"/>
    </edge>
    <edge id=":D4_3" function="internal">
        <lane id=":D4_3_0" index="0" disallow="pedestrian" speed="5.37" length="2.09" shape="148.00,148.40 149.57,148.62 150.00,148.88"/>
    </edge>
    <edge id=":D4_4" function="internal">
        <lane id=":D4_4_0" index="0" disallow="pedestrian" speed="5.37" length="3.72" shape="150.00,148.88 150.70,149.30 151.38,150.43 151.60,152.00"/>
    </edge>
    <edge id=":D5_0" function="internal">
        <lane id=":D5_0_0" index="0" disallow="pedestrian" speed="7.48" length="12.26" shape="201.60,140.80 202.07,144.13 203.50,146.50 205.88,147.93 209.20,148.40"/>
    </edge>
    <edge id=":D5_1" function="internal">
        <lane id=":D5_1_0" index="0" disallow="pedestrian" speed="13.89" length="13.20" shape="201.60,140.80 201.60,154.00"/>
    </edge>
    <edge id=":D5_2" function="internal">
        <lane id=":D5_2_0" index="0" disallow="pedestrian" speed="13.89" length="13.20" shape="196.00,148.40 209.20,148.40"/>
    </edge>
    <edge id=":D5_3" function="internal">
        <lane id=":D5_3_0" index="0" disallow="pedestrian" speed="6.51" length="9.03" shape="196.00,148.40 198.45,148.75 200.20,149.80 201.25,151.55 201.60,154.00"/>
    </edge>
    <edge id=":D6_0" function="internal">
        <lane id=":D6_0_0" index="0" disallow="pedestrian" speed="5.99" length="7.49" shape="251.60,142.80 251.82,145.25 252.50,147.00 253.62,148.05 255.20,148.40"/>
    </edge>
    <edge id=":D6_1" function="internal">
        <lane id=":D6_1_0" index="0" speed="13.89" length="9.20" shape="251.60,142.80 251.60,152.00"/>
    </edge>
    <edge id=":D6_2" function="internal">
        <lane id=":D6_2_0" index="0" disallow="pedestrian" speed="13.89" length="7.20" shape="248.00,148.40 255.20,148.40"/>
    </edge>
    <edge id=":D6_3" function="internal">
        <lane id=":D6_3_0" index="0" speed="5.37" length="2.09" shape="248.00,148.40 249.57,148.62 250.00,148.88"/>
    </edge>
    <edge id=":D6_4" function="internal">
        <lane id=":D6_4_0" index="0" speed="5.37" length="3.72" shape="250.00,148.88 250.70,149.30 251.38,150.43 251.60,152.00"/>
    </edge>
    <edge id=":D7_0" function="internal">
        <lane id=":D7_0_0" index="0" speed="7.02" length="10.69" shape="301.60,140.80 301.95,144.13 303.00,146.50 304.75,147.93 307.20,148.40"/>
    </edge>
    <edge id=":D7_1" function="internal">
        <lane id=":D7_1_0" index="0" speed="13.89" length="13.20" shape="301.60,140.80 301.60,154.00"/>
    </edge>
    <edge id=":D7_2" function="internal">
        <lane id=":D7_2_0" index="0" disallow="pedestrian" speed="13.89" length="11.20" shape="296.00,148.40 307.20,148.40"/>
    </edge>
    <edge id=":D7_3" function="internal">
        <lane id=":D7_3_0" index="0" disallow="pedestrian" speed="6.51" length="9.03" shape="296.00,148.40 298.45,148.75 300.20,149.80 301.25,151.55 301.60,154.00"/>
    </edge>
    <edge id=":D8_0" function="internal">
        <lane id=":D8_0_0" index="0" speed="6.51" length="9.03" shape="351.60,142.80 351.95,145.25 353.00,147.00 354.75,148.05 357.20,148.40"/>
    </edge>
    <edge id=":D8_1" function="internal">
        <lane id=":D8_1_0" index="0" speed="13.89" length="11.20" shape="351.60,142.80 351.60,154.00"/>
    </edge>
    <edge id=":D8_2" function="internal">
        <lane id=":D8_2_0" index="0" speed="13.89" length="11.20" shape="346.00,148.40 357.20,148.40"/>
    </edge>
    <edge id=":D8_3" function="internal">
        <lane id=":D8_3_0" index="0" speed="6.51" length="4.28" shape="346.00,148.40 348.45,148.75 350.00,149.68"/>
    </edge>
    <edge id=":D8_4" function="internal">
        <lane id=":D8_4_0" index="0" speed="6.51" length="4.75" shape="350.00,149.68 350.20,149.80 351.25,151.55 351.60,154.00"/>
    </edge>
    <edge id=":D9_0" function="internal">
        <lane id=":D9_0_0" index="0" speed="6.51" length="9.03" shape="401.60,142.80 401.95,145.25 403.00,147.00 404.75,148.05 407.20,148.40"/>
    </edge>
    <edge id=":D9_1" function="internal">
        <lane id=":D9_1_0" index="0" speed="13.89" length="11.20" shape="401.60,142.80 401.60,154.00"/>
    </edge>
    <edge id=":D9_2" function="internal">
        <lane id=":D9_2_0" index="0" speed="13.89" length="11.20" shape="396.00,148.40 407.20,148.40"/>
    </edge>
    <edge id=":D9_3" function="internal">
        <lane id=":D9_3_0" index="0" speed="6.51" length="4.28" shape="396.00,148.40 398.45,148.75 400.00,149.68"/>
    </edge>
    <edge id=":D9_4" function="internal">
        <lane id=":D9_4_0" index="0" speed="6.51" length="4.75" shape="400.00,149.68 400.20,149.80 401.25,151.55 401.60,154.00"/>
    </edge>
    <edge id=":E1_0" function="internal">
        <lane id=":E1_0_0" index="0" disallow="pedestrian" speed="7.02" length="10.69" shape="1.60,192.80 2.07,195.25 3.50,197.00 5.87,198.05 9.20,198.40"/>
    </edge>
    <edge id=":E1_1" function="internal">
        <lane id=":E1_1_0" index="0" disallow="pedestrian" speed="13.89" length="11.20" shape="1.60,192.80 1.60,204.00"/>
    </edge>
    <edge id=":E10_0" function="internal">
        <lane id=":E10_0_0" index="0" disallow="pedestrian" speed="13.89" length="11.20" shape="451.60,192.80 451.60,204.00"/>
    </edge>
    <edge id=":E10_1" function="internal">
        <lane id=":E10_1_0" index="0" disallow="pedestrian" speed="6.51" length="4.28" shape="446.00,198.40 448.45,198.75 450.00,199.68"/>
    </edge>
    <edge id=":E10_2" function="internal">
        <lane id=":E10_2_0" index="0" disallow="pedestrian" speed="6.51" length="4.75" shape="450.00,199.68 450.20,199.80 451.25,201.55 451.60,204.00"/>
    </edge>
    <edge id=":E2_0" function="internal">
        <lane id=":E2_0_0" index="0" disallow="pedestrian" speed="6.51" length="9.03" shape="51.60,192.80 51.95,195.25 53.00,197.00 54.75,198.05 57.20,198.40"/>
    </edge>
    <edge id=":E2_1" function="internal">