<?xml version="1.0" encoding="UTF-8"?>

<!-- generated on 2023년 10월 19일 (목) 오후 09시 13분 22초 by Eclipse SUMO netedit Version 1.8.0
<configuration xmlns:xsi="http://www.w3.org/2001/XMLSchema-instance" xsi:noNamespaceSchemaLocation="http://sumo.dlr.de/xsd/netconvertConfiguration.xsd">

    <input>
        <sumo-net-file value="/home/jwl/sumoproject/5x5grid.net.xml"/>
    </input>

    <output>
        <output-file value="/home/jwl/sumoproject/5x5grid.net.xml"/>
    </output>

    <processing>
        <geometry.min-radius.fix.railways value="false"/>
        <geometry.max-grade.fix value="false"/>
        <offset.disable-normalization value="true"/>
        <lefthand value="false"/>
    </processing>

    <junctions>
        <no-turnarounds value="true"/>
        <junctions.corner-detail value="5"/>
        <junctions.limit-turn-speed value="5.5"/>
        <rectangular-lane-cut value="false"/>
    </junctions>

    <pedestrian>
        <walkingareas value="false"/>
    </pedestrian>

    <report>
        <aggregate-warnings value="5"/>
    </report>

</configuration>
-->

<net version="1.6" junctionCornerDetail="5" limitTurnSpeed="5.50" xmlns:xsi="http://www.w3.org/2001/XMLSchema-instance" xsi:noNamespaceSchemaLocation="http://sumo.dlr.de/xsd/net_file.xsd">

    <location netOffset="0.00,0.00" convBoundary="0.00,0.00,200.00,200.00" origBoundary="-10000000000.00,-10000000000.00,10000000000.00,10000000000.00" projParameter="!"/>

    <edge id=":A_0" function="internal">
        <lane id=":A_0_0" index="0" disallow="pedestrian" speed="7.10" length="10.97" shape="5.20,201.60 2.23,201.18 0.10,199.90 -1.17,197.77 -1.60,194.80"/>
    </edge>
    <edge id=":A_1" function="internal">
        <lane id=":A_1_0" index="0" disallow="pedestrian" speed="5.37" length="5.81" shape="1.60,194.80 1.82,196.38 2.50,197.50 3.62,198.18 5.20,198.40"/>
    </edge>
    <edge id=":B_0" function="internal">
        <lane id=":B_0_0" index="0" disallow="pedestrian" speed="13.89" length="14.40" shape="57.20,201.60 42.80,201.60"/>
    </edge>
    <edge id=":B_1" function="internal">
        <lane id=":B_1_0" index="0" disallow="pedestrian" speed="8.00" length="5.93" shape="57.20,201.60 53.35,201.05 51.60,200.00"/>
    </edge>
    <edge id=":B_6" function="internal">
        <lane id=":B_6_0" index="0" disallow="pedestrian" speed="8.00" length="8.26" shape="51.60,200.00 50.60,199.40 48.95,196.65 48.40,192.80"/>
    </edge>
    <edge id=":B_2" function="internal">
        <lane id=":B_2_0" index="0" disallow="pedestrian" speed="6.51" length="9.03" shape="51.60,192.80 51.95,195.25 53.00,197.00 54.75,198.05 57.20,198.40"/>
    </edge>
    <edge id=":B_3" function="internal">
        <lane id=":B_3_0" index="0" disallow="pedestrian" speed="8.00" length="14.19" shape="51.60,192.80 51.05,196.65 49.40,199.40 46.65,201.05 42.80,201.60"/>
    </edge>
    <edge id=":B_4" function="internal">
        <lane id=":B_4_0" index="0" disallow="pedestrian" speed="6.51" length="9.03" shape="42.80,198.40 45.25,198.05 47.00,197.00 48.05,195.25 48.40,192.80"/>
    </edge>
    <edge id=":B_5" function="internal">
        <lane id=":B_5_0" index="0" disallow="pedestrian" speed="13.89" length="14.40" shape="42.80,198.40 57.20,198.40"/>
    </edge>
    <edge id=":C_0" function="internal">
        <lane id=":C_0_0" index="0" disallow="pedestrian" speed="13.89" length="14.40" shape="107.20,201.60 92.80,201.60"/>
    </edge>
    <edge id=":C_1" function="internal">
        <lane id=":C_1_0" index="0" disallow="pedestrian" speed="8.00" length="5.93" shape="107.20,201.60 103.35,201.05 101.60,200.00"/>
    </edge>
    <edge id=":C_6" function="internal">
        <lane id=":C_6_0" index="0" disallow="pedestrian" speed="8.00" length="8.26" shape="101.60,200.00 100.60,199.40 98.95,196.65 98.40,192.80"/>
    </edge>
    <edge id=":C_2" function="internal">
        <lane id=":C_2_0" index="0" disallow="pedestrian" speed="6.51" length="9.03" shape="101.60,192.80 101.95,195.25 103.00,197.00 104.75,198.05 107.20,198.40"/>
    </edge>
    <edge id=":C_3" function="internal">
        <lane id=":C_3_0" index="0" disallow="pedestrian" speed="8.00" length="14.19" shape="101.60,192.80 101.05,196.65 99.40,199.40 96.65,201.05 92.80,201.60"/>
    </edge>
    <edge id=":C_4" function="internal">
        <lane id=":C_4_0" index="0" disallow="pedestrian" speed="6.51" length="9.03" shape="92.80,198.40 95.25,198.05 97.00,197.00 98.05,195.25 98.40,192.80"/>
    </edge>
    <edge id=":C_5" function="internal">
        <lane id=":C_5_0" index="0" disallow="pedestrian" speed="13.89" length="14.40" shape="92.80,198.40 107.20,198.40"/>
    </edge>
    <edge id=":D_0" function="internal">
        <lane id=":D_0_0" index="0" disallow="pedestrian" speed="13.89" length="14.40" shape="157.20,201.60 142.80,201.60"/>
    </edge>
    <edge id=":D_1" function="internal">
        <lane id=":D_1_0" index="0" disallow="pedestrian" speed="8.00" length="5.93" shape="157.20,201.60 153.35,201.05 151.60,200.00"/>
    </edge>
    <edge id=":D_6" function="internal">
        <lane id=":D_6_0" index="0" disallow="pedestrian" speed="8.00" length="8.26" shape="151.60,200.00 150.60,199.40 148.95,196.65 148.40,192.80"/>
    </edge>
    <edge id=":D_2" function="internal">
        <lane id=":D_2_0" index="0" disallow="pedestrian" speed="6.51" length="9.03" shape="151.60,192.80 151.95,195.25 153.00,197.00 154.75,198.05 157.20,198.40"/>
    </edge>
    <edge id=":D_3" function="internal">
        <lane id=":D_3_0" index="0" disallow="pedestrian" speed="8.00" length="14.19" shape="151.60,192.80 151.05,196.65 149.40,199.40 146.65,201.05 142.80,201.60"/>
    </edge>
    <edge id=":D_4" function="internal">
        <lane id=":D_4_0" index="0" disallow="pedestrian" speed="6.51" length="9.03" shape="142.80,198.40 145.25,198.05 147.00,197.00 148.05,195.25 148.40,192.80"/>
    </edge>
    <edge id=":D_5" function="internal">
        <lane id=":D_5_0" index="0" disallow="pedestrian" speed="13.89" length="14.40" shape="142.80,198.40 157.20,198.40"/>
    </edge>
    <edge id=":E_0" function="internal">
        <lane id=":E_0_0" index="0" disallow="pedestrian" speed="7.10" length="10.97" shape="201.60,194.80 201.18,197.78 199.90,199.90 197.77,201.17 194.80,201.60"/>
    </edge>
    <edge id=":E_1" function="internal">
        <lane id=":E_1_0" index="0" disallow="pedestrian" speed="5.37" length="5.81" shape="194.80,198.40 196.38,198.18 197.50,197.50 198.18,196.38 198.40,194.80"/>
    </edge>
    <edge id=":F_0" function="internal">
        <lane id=":F_0_0" index="0" disallow="pedestrian" speed="13.89" length="14.40" shape="-1.60,157.20 -1.60,142.80"/>
    </edge>
    <edge id=":F_1" function="internal">
        <lane id=":F_1_0" index="0" disallow="pedestrian" speed="8.00" length="5.93" shape="-1.60,157.20 -1.05,153.35 -0.00,151.60"/>
    </edge>
    <edge id=":F_6" function="internal">
        <lane id=":F_6_0" index="0" disallow="pedestrian" speed="8.00" length="8.26" shape="-0.00,151.60 0.60,150.60 3.35,148.95 7.20,148.40"/>
    </edge>
    <edge id=":F_2" function="internal">
        <lane id=":F_2_0" index="0" disallow="pedestrian" speed="6.51" length="9.03" shape="7.20,151.60 4.75,151.95 3.00,153.00 1.95,154.75 1.60,157.20"/>
    </edge>
    <edge id=":F_3" function="internal">
        <lane id=":F_3_0" index="0" disallow="pedestrian" speed="8.00" length="14.19" shape="7.20,151.60 3.35,151.05 0.60,149.40 -1.05,146.65 -1.60,142.80"/>
    </edge>
    <edge id=":F_4" function="internal">
        <lane id=":F_4_0" index="0" disallow="pedestrian" speed="6.51" length="9.03" shape="1.60,142.80 1.95,145.25 3.00,147.00 4.75,148.05 7.20,148.40"/>
    </edge>
    <edge id=":F_5" function="internal">
        <lane id=":F_5_0" index="0" disallow="pedestrian" speed="13.89" length="14.40" shape="1.60,142.80 1.60,157.20"/>
    </edge>
    <edge id=":G_0" function="internal">
        <lane id=":G_0_0" index="0" disallow="pedestrian" speed="6.51" length="9.03" shape="48.40,157.20 48.05,154.75 47.00,153.00 45.25,151.95 42.80,151.60"/>
    </edge>
    <edge id=":G_1" function="internal">
        <lane id=":G_1_0" index="0" disallow="pedestrian" speed="13.89" length="14.40" shape="48.40,157.20 48.40,142.80"/>
    </edge>
    <edge id=":G_2" function="internal">
        <lane id=":G_2_0" index="0" disallow="pedestrian" speed="8.00" length="5.93" shape="48.40,157.20 48.95,153.35 50.00,151.60"/>
    </edge>
    <edge id=":G_12" function="internal">
        <lane id=":G_12_0" index="0" disallow="pedestrian" speed="8.00" length="8.26" shape="50.00,151.60 50.60,150.60 53.35,148.95 57.20,148.40"/>
    </edge>
    <edge id=":G_3" function="internal">
        <lane id=":G_3_0" index="0" disallow="pedestrian" speed="6.51" length="9.03" shape="57.20,151.60 54.75,151.95 53.00,153.00 51.95,154.75 51.60,157.20"/>
    </edge>
    <edge id=":G_4" function="internal">
        <lane id=":G_4_0" index="0" disallow="pedestrian" speed="13.89" length="14.40" shape="57.20,151.60 42.80,151.60"/>
    </edge>
    <edge id=":G_5" function="internal">
        <lane id=":G_5_0" index="0" disallow="pedestrian" speed="8.00" length="14.19" shape="57.20,151.60 53.35,151.05 50.60,149.40 48.95,146.65 48.40,142.80"/>
    </edge>
    <edge id=":G_6" function="internal">
        <lane id=":G_6_0" index="0" disallow="pedestrian" speed="6.51" length="9.03" shape="51.60,142.80 51.95,145.25 53.00,147.00 54.75,148.05 57.20,148.40"/>
    </edge>
    <edge id=":G_7" function="internal">
        <lane id=":G_7_0" index="0" disallow="pedestrian" speed="13.89" length="14.40" shape="51.60,142.80 51.60,157.20"/>
    </edge>
    <edge id=":G_8" function="internal">
        <lane id=":G_8_0" index="0" disallow="pedestrian" speed="8.00" length="5.93" shape="51.60,142.80 51.05,146.65 50.00,148.40"/>
    </edge>
    <edge id=":G_13" function="internal">
        <lane id=":G_13_0" index="0" disallow="pedestrian" speed="8.00" length="8.26" shape="50.00,148.40 49.40,149.40 46.65,151.05 42.80,151.60"/>
    </edge>
    <edge id=":G_9" function="internal">
        <lane id=":G_9_0" index="0" disallow="pedestrian" speed="6.51" length="9.03" shape="42.80,148.40 45.25,148.05 47.00,147.00 48.05,145.25 48.40,142.80"/>
    </edge>
    <edge id=":G_10" function="internal">
        <lane id=":G_10_0" index="0" disallow="pedestrian" speed="13.89" length="14.40" shape="42.80,148.40 57.20,148.40"/>
    </edge>
    <edge id=":G_11" function="internal">
        <lane id=":G_11_0" index="0" disallow="pedestrian" speed="8.00" length="14.19" shape="42.80,148.40 46.65,148.95 49.40,150.60 51.05,153.35 51.60,157.20"/>
    </edge>
    <edge id=":H_0" function="internal">
        <lane id=":H_0_0" index="0" disallow="pedestrian" speed="6.51" length="9.03" shape="98.40,157.20 98.05,154.75 97.00,153.00 95.25,151.95 92.80,151.60"/>
    </edge>
    <edge id=":H_1" function="internal">
        <lane id=":H_1_0" index="0" disallow="pedestrian" speed="13.89" length="14.40" shape="98.40,157.20 98.40,142.80"/>
    </edge>
    <edge id=":H_2" function="internal">
        <lane id=":H_2_0" index="0" disallow="pedestrian" speed="8.00" length="5.93" shape="98.40,157.20 98.95,153.35 100.00,151.60"/>
    </edge>
    <edge id=":H_12" function="internal">
        <lane id=":H_12_0" index="0" disallow="pedestrian" speed="8.00" length="8.26" shape="100.00,151.60 100.60,150.60 103.35,148.95 107.20,148.40"/>
    </edge>
    <edge id=":H_3" function="internal">
        <lane id=":H_3_0" index="0" disallow="pedestrian" speed="6.51" length="9.03" shape="107.20,151.60 104.75,151.95 103.00,153.00 101.95,154.75 101.60,157.20"/>
    </edge>
    <edge id=":H_4" function="internal">
        <lane id=":H_4_0" index="0" disallow="pedestrian" speed="13.89" length="14.40" shape="107.20,151.60 92.80,151.60"/>
    </edge>
    <edge id=":H_5" function="internal">
        <lane id=":H_5_0" index="0" disallow="pedestrian" speed="8.00" length="14.19" shape="107.20,151.60 103.35,151.05 100.60,149.40 98.95,146.65 98.40,142.80"/>
    </edge>
    <edge id=":H_6" function="internal">
        <lane id=":H_6_0" index="0" disallow="pedestrian" speed="6.51" length="9.03" shape="101.60,142.80 101.95,145.25 103.00,147.00 104.75,148.05 107.20,148.40"/>
    </edge>
    <edge id=":H_7" function="internal">
        <lane id=":H_7_0" index="0" disallow="pedestrian" speed="13.89" length="14.40" shape="101.60,142.80 101.60,157.20"/>
    </edge>
    <edge id=":H_8" function="internal">
        <lane id=":H_8_0" index="0" disallow="pedestrian" speed="8.00" length="5.93" shape="101.60,142.80 101.05,146.65 100.00,148.40"/>
    </edge>
    <edge id=":H_13" function="internal">
        <lane id=":H_13_0" index="0" disallow="pedestrian" speed="8.00" length="8.26" shape="100.00,148.40 99.40,149.40 96.65,151.05 92.80,151.60"/>
    </edge>
    <edge id=":H_9" function="internal">
        <lane id=":H_9_0" index="0" disallow="pedestrian" speed="6.51" length="9.03" shape="92.80,148.40 95.25,148.05 97.00,147.00 98.05,145.25 98.40,142.80"/>
    </edge>
    <edge id=":H_10" function="internal">
        <lane id=":H_10_0" index="0" disallow="pedestrian" speed="13.89" length="14.40" shape="92.80,148.40 107.20,148.40"/>
    </edge>
    <edge id=":H_11" function="internal">
        <lane id=":H_11_0" index="0" disallow="pedestrian" speed="8.00" length="14.19" shape="92.80,148.40 96.65,148.95 99.40,150.60 101.05,153.35 101.60,157.20"/>
    </edge>
    <edge id=":I_0" function="internal">
        <lane id=":I_0_0" index="0" disallow="pedestrian" speed="6.51" length="9.03" shape="148.40,157.20 148.05,154.75 147.00,153.00 145.25,151.95 142.80,151.60"/>
    </edge>
    <edge id=":I_1" function="internal">
        <lane id=":I_1_0" index="0" disallow="pedestrian" speed="13.89" length="14.40" shape="148.40,157.20 148.40,142.80"/>
    </edge>
    <edge id=":I_2" function="internal">
        <lane id=":I_2_0" index="0" disallow="pedestrian" speed="8.00" length="5.93" shape="148.40,157.20 148.95,153.35 150.00,151.60"/>
    </edge>
    <edge id=":I_12" function="internal">
        <lane id=":I_12_0" index="0" disallow="pedestrian" speed="8.00" length="8.26" shape="150.00,151.60 150.60,150.60 153.35,148.95 157.20,148.40"/>
    </edge>
    <edge id=":I_3" function="internal">
        <lane id=":I_3_0" index="0" disallow="pedestrian" speed="6.51" length="9.03" shape="157.20,151.60 154.75,151.95 153.00,153.00 151.95,154.75 151.60,157.20"/>
    </edge>
    <edge id=":I_4" function="internal">
        <lane id=":I_4_0" index="0" disallow="pedestrian" speed="13.89" length="14.40" shape="157.20,151.60 142.80,151.60"/>
    </edge>
    <edge id=":I_5" function="internal">
        <lane id=":I_5_0" index="0" disallow="pedestrian" speed="8.00" length="14.19" shape="157.20,151.60 153.35,151.05 150.60,149.40 148.95,146.65 148.40,142.80"/>
    </edge>
    <edge id=":I_6" function="internal">
        <lane id=":I_6_0" index="0" disallow="pedestrian" speed="6.51" length="9.03" shape="151.60,142.80 151.95,145.25 153.00,147.00 154.75,148.05 157.20,148.40"/>
    </edge>
    <edge id=":I_7" function="internal">
        <lane id=":I_7_0" index="0" disallow="pedestrian" speed="13.89" length="14.40" shape="151.60,142.80 151.60,157.20"/>
    </edge>
    <edge id=":I_8" function="internal">
        <lane id=":I_8_0" index="0" disallow="pedestrian" speed="8.00" length="5.93" shape="151.60,142.80 151.05,146.65 150.00,148.40"/>
    </edge>
    <edge id=":I_13" function="internal">
        <lane id=":I_13_0" index="0" disallow="pedestrian" speed="8.00" length="8.26" shape="150.00,148.40 149.40,149.40 146.65,151.05 142.80,151.60"/>
    </edge>
    <edge id=":I_9" function="internal">
        <lane id=":I_9_0" index="0" disallow="pedestrian" speed="6.51" length="9.03" shape="142.80,148.40 145.25,148.05 147.00,147.00 148.05,145.25 148.40,142.80"/>
    </edge>
    <edge id=":I_10" function="internal">
        <lane id=":I_10_0" index="0" disallow="pedestrian" speed="13.89" length="14.40" shape="142.80,148.40 157.20,148.40"/>
    </edge>
    <edge id=":I_11" function="internal">
        <lane id=":I_11_0" index="0" disallow="pedestrian" speed="8.00" length="14.19" shape="142.80,148.40 146.65,148.95 149.40,150.60 151.05,153.35 151.60,157.20"/>
    </edge>
    <edge id=":J_0" function="internal">
        <lane id=":J_0_0" index="0" disallow="pedestrian" speed="6.51" length="9.03" shape="198.40,157.20 198.05,154.75 197.00,153.00 195.25,151.95 192.80,151.60"/>
    </edge>
    <edge id=":J_1" function="internal">
        <lane id=":J_1_0" index="0" disallow="pedestrian" speed="13.89" length="14.40" shape="198.40,157.20 198.40,142.80"/>
    </edge>
    <edge id=":J_2" function="internal">
        <lane id=":J_2_0" index="0" disallow="pedestrian" speed="13.89" length="14.40" shape="201.60,142.80 201.60,157.20"/>
    </edge>
    <edge id=":J_3" function="internal">
        <lane id=":J_3_0" index="0" disallow="pedestrian" speed="8.00" length="5.93" shape="201.60,142.80 201.05,146.65 200.00,148.40"/>
    </edge>
    <edge id=":J_6" function="internal">
        <lane id=":J_6_0" index="0" disallow="pedestrian" speed="8.00" length="8.26" shape="200.00,148.40 199.40,149.40 196.65,151.05 192.80,151.60"/>
    </edge>
    <edge id=":J_4" function="internal">
        <lane id=":J_4_0" index="0" disallow="pedestrian" speed="6.51" length="9.03" shape="192.80,148.40 195.25,148.05 197.00,147.00 198.05,145.25 198.40,142.80"/>
    </edge>
    <edge id=":J_5" function="internal">
        <lane id=":J_5_0" index="0" disallow="pedestrian" speed="8.00" length="14.19" shape="192.80,148.40 196.65,148.95 199.40,150.60 201.05,153.35 201.60,157.20"/>
    </edge>
    <edge id=":K_0" function="internal">
        <lane id=":K_0_0" index="0" disallow="pedestrian" speed="13.89" length="14.40" shape="-1.60,107.20 -1.60,92.80"/>
    </edge>
    <edge id=":K_1" function="internal">
        <lane id=":K_1_0" index="0" disallow="pedestrian" speed="8.00" length="5.93" shape="-1.60,107.20 -1.05,103.35 -0.00,101.60"/>
    </edge>
    <edge id=":K_6" function="internal">
        <lane id=":K_6_0" index="0" disallow="pedestrian" speed="8.00" length="8.26" shape="-0.00,101.60 0.60,100.60 3.35,98.95 7.20,98.40"/>
    </edge>
    <edge id=":K_2" function="internal">
        <lane id=":K_2_0" index="0" disallow="pedestrian" speed="6.51" length="9.03" shape="7.20,101.60 4.75,101.95 3.00,103.00 1.95,104.75 1.60,107.20"/>
    </edge>
    <edge id=":K_3" function="internal">
        <lane id=":K_3_0" index="0" disallow="pedestrian" speed="8.00" length="14.19" shape="7.20,101.60 3.35,101.05 0.60,99.40 -1.05,96.65 -1.60,92.80"/>
    </edge>
    <edge id=":K_4" function="internal">
        <lane id=":K_4_0" index="0" disallow="pedestrian" speed="6.51" length="9.03" shape="1.60,92.80 1.95,95.25 3.00,97.00 4.75,98.05 7.20,98.40"/>
    </edge>
    <edge id=":K_5" function="internal">
        <lane id=":K_5_0" index="0" disallow="pedestrian" speed="13.89" length="14.40" shape="1.60,92.80 1.60,107.20"/>
    </edge>
    <edge id=":L_0" function="internal">
        <lane id=":L_0_0" index="0" disallow="pedestrian" speed="6.51" length="9.03" shape="48.40,107.20 48.05,104.75 47.00,103.00 45.25,101.95 42.80,101.60"/>
    </edge>
    <edge id=":L_1" function="internal">
        <lane id=":L_1_0" index="0" disallow="pedestrian" speed="13.89" length="14.40" shape="48.40,107.20 48.40,92.80"/>
    </edge>
    <edge id=":L_2" function="internal">
        <lane id=":L_2_0" index="0" disallow="pedestrian" speed="8.00" length="5.93" shape="48.40,107.20 48.95,103.35 50.00,101.60"/>
    </edge>
    <edge id=":L_12" function="internal">
        <lane id=":L_12_0" index="0" disallow="pedestrian" speed="8.00" length="8.26" shape="50.00,101.60 50.60,100.60 53.35,98.95 57.20,98.40"/>
    </edge>
    <edge id=":L_3" function="internal">
        <lane id=":L_3_0" index="0" disallow="pedestrian" speed="6.51" length="9.03" shape="57.20,101.60 54.75,101.95 53.00,103.00 51.95,104.75 51.60,107.20"/>
    </edge>
    <edge id=":L_4" function="internal">
        <lane id=":L_4_0" index="0" disallow="pedestrian" speed="13.89" length="14.40" shape="57.20,101.60 42.80,101.60"/>
    </edge>
    <edge id=":L_5" function="internal">
        <lane id=":L_5_0" index="0" disallow="pedestrian" speed="8.00" length="14.19" shape="57.20,101.60 53.35,101.05 50.60,99.40 48.95,96.65 48.40,92.80"/>
    </edge>
    <edge id=":L_6" function="internal">
        <lane id=":L_6_0" index="0" disallow="pedestrian" speed="6.51" length="9.03" shape="51.60,92.80 51.95,95.25 53.00,97.00 54.75,98.05 57.20,98.40"/>
    </edge>
    <edge id=":L_7" function="internal">
        <lane id=":L_7_0" index="0" disallow="pedestrian" speed="13.89" length="14.40" shape="51.60,92.80 51.60,107.20"/>
    </edge>
    <edge id=":L_8" function="internal">
        <lane id=":L_8_0" index="0" disallow="pedestrian" speed="8.00" length="5.93" shape="51.60,92.80 51.05,96.65 50.00,98.40"/>
    </edge>
    <edge id=":L_13" function="internal">
        <lane id=":L_13_0" index="0" disallow="pedestrian" speed="8.00" length="8.26" shape="50.00,98.40 49.40,99.40 46.65,101.05 42.80,101.60"/>
    </edge>
    <edge id=":L_9" function="internal">
        <lane id=":L_9_0" index="0" disallow="pedestrian" speed="6.51" length="9.03" shape="42.80,98.40 45.25,98.05 47.00,97.00 48.05,95.25 48.40,92.80"/>
    </edge>
    <edge id=":L_10" function="internal">
        <lane id=":L_10_0" index="0" disallow="pedestrian" speed="13.89" length="14.40" shape="42.80,98.40 57.20,98.40"/>
    </edge>
    <edge id=":L_11" function="internal">
        <lane id=":L_11_0" index="0" disallow="pedestrian" speed="8.00" length="14.19" shape="42.80,98.40 46.65,98.95 49.40,100.60 51.05,103.35 51.60,107.20"/>
    </edge>
    <edge id=":M_0" function="internal">
        <lane id=":M_0_0" index="0" disallow="pedestrian" speed="6.51" length="9.03" shape="98.40,107.20 98.05,104.75 97.00,103.00 95.25,101.95 92.80,101.60"/>
    </edge>
    <edge id=":M_1" function="internal">
        <lane id=":M_1_0" index="0" disallow="pedestrian" speed="13.89" length="14.40" shape="98.40,107.20 98.40,92.80"/>
    </edge>
    <edge id=":M_2" function="internal">
        <lane id=":M_2_0" index="0" disallow="pedestrian" speed="8.00" length="5.93" shape="98.40,107.20 98.95,103.35 100.00,101.60"/>
    </edge>
    <edge id=":M_12" function="internal">
        <lane id=":M_12_0" index="0" disallow="pedestrian" speed="8.00" length="8.26" shape="100.00,101.60 100.60,100.60 103.35,98.95 107.20,98.40"/>
    </edge>
    <edge id=":M_3" function="internal">
        <lane id=":M_3_0" index="0" disallow="pedestrian" speed="6.51" length="9.03" shape="107.20,101.60 104.75,101.95 103.00,103.00 101.95,104.75 101.60,107.20"/>
    </edge>
    <edge id=":M_4" function="internal">
        <lane id=":M_4_0" index="0" disallow="pedestrian" speed="13.89" length="14.40" shape="107.20,101.60 92.80,101.60"/>
    </edge>
    <edge id=":M_5" function="internal">
        <lane id=":M_5_0" index="0" disallow="pedestrian" speed="8.00" length="14.19" shape="107.20,101.60 103.35,101.05 100.60,99.40 98.95,96.65 98.40,92.80"/>
    </edge>
    <edge id=":M_6" function="internal">
        <lane id=":M_6_0" index="0" disallow="pedestrian" speed="6.51" length="9.03" shape="101.60,92.80 101.95,95.25 103.00,97.00 104.75,98.05 107.20,98.40"/>
    </edge>
    <edge id=":M_7" function="internal">
        <lane id=":M_7_0" index="0" disallow="pedestrian" speed="13.89" length="14.40" shape="101.60,92.80 101.60,107.20"/>
    </edge>
    <edge id=":M_8" function="internal">
        <lane id=":M_8_0" index="0" disallow="pedestrian" speed="8.00" length="5.93" shape="101.60,92.80 101.05,96.65 100.00,98.40"/>
    </edge>
    <edge id=":M_13" function="internal">
        <lane id=":M_13_0" index="0" disallow="pedestrian" speed="8.00" length="8.26" shape="100.00,98.40 99.40,99.40 96.65,101.05 92.80,101.60"/>
    </edge>
    <edge id=":M_9" function="internal">
        <lane id=":M_9_0" index="0" disallow="pedestrian" speed="6.51" length="9.03" shape="92.80,98.40 95.25,98.05 97.00,97.00 98.05,95.25 98.40,92.80"/>
    </edge>
    <edge id=":M_10" function="internal">
        <lane id=":M_10_0" index="0" disallow="pedestrian" speed="13.89" length="14.40" shape="92.80,98.40 107.20,98.40"/>
    </edge>
    <edge id=":M_11" function="internal">
        <lane id=":M_11_0" index="0" disallow="pedestrian" speed="8.00" length="14.19" shape="92.80,98.40 96.65,98.95 99.40,100.60 101.05,103.35 101.60,107.20"/>
    </edge>
    <edge id=":N_0" function="internal">
        <lane id=":N_0_0" index="0" disallow="pedestrian" speed="6.51" length="9.03" shape="148.40,107.20 148.05,104.75 147.00,103.00 145.25,101.95 142.80,101.60"/>
    </edge>
    <edge id=":N_1" function="internal">
        <lane id=":N_1_0" index="0" disallow="pedestrian" speed="13.89" length="14.40" shape="148.40,107.20 148.40,92.80"/>
    </edge>
    <edge id=":N_2" function="internal">
        <lane id=":N_2_0" index="0" disallow="pedestrian" speed="8.00" length="5.93" shape="148.40,107.20 148.95,103.35 150.00,101.60"/>
    </edge>
    <edge id=":N_12" function="internal">
        <lane id=":N_12_0" index="0" disallow="pedestrian" speed="8.00" length="8.26" shape="150.00,101.60 150.60,100.60 153.35,98.95 157.20,98.40"/>
    </edge>
    <edge id=":N_3" function="internal">
        <lane id=":N_3_0" index="0" disallow="pedestrian" speed="6.51" length="9.03" shape="157.20,101.60 154.75,101.95 153.00,103.00 151.95,104.75 151.60,107.20"/>
    </edge>
    <edge id=":N_4" function="internal">
        <lane id=":N_4_0" index="0" disallow="pedestrian" speed="13.89" length="14.40" shape="157.20,101.60 142.80,101.60"/>
    </edge>
    <edge id=":N_5" function="internal">
        <lane id=":N_5_0" index="0" disallow="pedestrian" speed="8.00" length="14.19" shape="157.20,101.60 153.35,101.05 150.60,99.40 148.95,96.65 148.40,92.80"/>
    </edge>
    <edge id=":N_6" function="internal">
        <lane id=":N_6_0" index="0" disallow="pedestrian" speed="6.51" length="9.03" shape="151.60,92.80 151.95,95.25 153.00,97.00 154.75,98.05 157.20,98.40"/>
    </edge>
    <edge id=":N_7" function="internal">
        <lane id=":N_7_0" index="0" disallow="pedestrian" speed="13.89" length="14.40" shape="151.60,92.80 151.60,107.20"/>
    </edge>
    <edge id=":N_8" function="internal">
        <lane id=":N_8_0" index="0" disallow="pedestrian" speed="8.00" length="5.93" shape="151.60,92.80 151.05,96.65 150.00,98.40"/>
    </edge>
    <edge id=":N_13" function="internal">
        <lane id=":N_13_0" index="0" disallow="pedestrian" speed="8.00" length="8.26" shape="150.00,98.40 149.40,99.40 146.65,101.05 142.80,101.60"/>
    </edge>
    <edge id=":N_9" function="internal">
        <lane id=":N_9_0" index="0" disallow="pedestrian" speed="6.51" length="9.03" shape="142.80,98.40 145.25,98.05 147.00,97.00 148.05,95.25 148.40,92.80"/>
    </edge>
    <edge id=":N_10" function="internal">
        <lane id=":N_10_0" index="0" disallow="pedestrian" speed="13.89" length="14.40" shape="142.80,98.40 157.20,98.40"/>
    </edge>
    <edge id=":N_11" function="internal">
        <lane id=":N_11_0" index="0" disallow="pedestrian" speed="8.00" length="14.19" shape="142.80,98.40 146.65,98.95 149.40,100.60 151.05,103.35 151.60,107.20"/>
    </edge>
    <edge id=":O_0" function="internal">
        <lane id=":O_0_0" index="0" disallow="pedestrian" speed="6.51" length="9.03" shape="198.40,107.20 198.05,104.75 197.00,103.00 195.25,101.95 192.80,101.60"/>
    </edge>
    <edge id=":O_1" function="internal">
        <lane id=":O_1_0" index="0" disallow="pedestrian" speed="13.89" length="14.40" shape="198.40,107.20 198.40,92.80"/>
    </edge>
    <edge id=":O_2" function="internal">
        <lane id=":O_2_0" index="0" disallow="pedestrian" speed="13.89" length="14.40" shape="201.60,92.80 201.60,107.20"/>
    </edge>
    <edge id=":O_3" function="internal">
        <lane id=":O_3_0" index="0" disallow="pedestrian" speed="8.00" length="5.93" shape="201.60,92.80 201.05,96.65 200.00,98.40"/>
    </edge>
    <edge id=":O_6" function="internal">
        <lane id=":O_6_0" index="0" disallow="pedestrian" speed="8.00" length="8.26" shape="200.00,98.40 199.40,99.40 196.65,101.05 192.80,101.60"/>
    </edge>
    <edge id=":O_4" function="internal">
        <lane id=":O_4_0" index="0" disallow="pedestrian" speed="6.51" length="9.03" shape="192.80,98.40 195.25,98.05 197.00,97.00 198.05,95.25 198.40,92.80"/>
    </edge>
    <edge id=":O_5" function="internal">
        <lane id=":O_5_0" index="0" disallow="pedestrian" speed="8.00" length="14.19" shape="192.80,98.40 196.65,98.95 199.40,100.60 201.05,103.35 201.60,107.20"/>
    </edge>
    <edge id=":P_0" function="internal">
        <lane id=":P_0_0" index="0" allow="pedestrian" speed="13.89" length="14.40" width="2.00" shape="-4.20,57.20 -4.20,42.80"/>
        <lane id=":P_0_1" index="1" disallow="pedestrian" speed="13.89" length="14.40" shape="-1.60,57.20 -1.60,42.80"/>
    </edge>
    <edge id=":P_2" function="internal">
        <lane id=":P_2_0" index="0" disallow="pedestrian" speed="8.00" length="5.93" shape="-1.60,57.20 -1.05,53.35 -0.00,51.60"/>
    </edge>
    <edge id=":P_8" function="internal">
        <lane id=":P_8_0" index="0" disallow="pedestrian" speed="8.00" length="8.26" shape="-0.00,51.60 0.60,50.60 3.35,48.95 7.20,48.40"/>
    </edge>
    <edge id=":P_3" function="internal">
        <lane id=":P_3_0" index="0" allow="pedestrian" speed="4.80" length="4.84" width="2.00" shape="7.20,54.20 5.89,54.39 4.95,54.95 4.39,55.89 4.20,57.20"/>
    </edge>
    <edge id=":P_4" function="internal">
        <lane id=":P_4_0" index="0" disallow="pedestrian" speed="8.00" length="14.19" shape="7.20,51.60 3.35,51.05 0.60,49.40 -1.05,46.65 -1.60,42.80"/>
    </edge>
    <edge id=":P_5" function="internal">
        <lane id=":P_5_0" index="0" allow="pedestrian" speed="4.80" length="4.84" width="2.00" shape="4.20,42.80 4.39,44.11 4.95,45.05 5.89,45.61 7.20,45.80"/>
    </edge>