<?xml version="1.0" encoding="UTF-8"?>

<!-- generated on 2023-09-20 15:53:21 by Eclipse SUMO GUI Version 1.12.0
-->

<configuration xmlns:xsi="http://www.w3.org/2001/XMLSchema-instance" xsi:noNamespaceSchemaLocation="http://sumo.dlr.de/xsd/sumoConfiguration.xsd">

    <input>
        <net-file value="/home/jwl/sumoproject/grid.net.xml"/>
        <route-files value="/home/jwl/sumoproject/route.rou.xml"/>
        <additional-files value="/home/jwl/sumoproject/add.add.xml"/>
    </input>

</configuration>
