<?xml version="1.0" encoding="UTF-8"?>

<!-- generated on 2023년 09월 19일 (화) 오후 05시 44분 51초 by Eclipse SUMO netedit Version 1.8.0
<configuration xmlns:xsi="http://www.w3.org/2001/XMLSchema-instance" xsi:noNamespaceSchemaLocation="http://sumo.dlr.de/xsd/netconvertConfiguration.xsd">

    <input>
        <sumo-net-file value="/home/jwl/sumoproject/grid.net.xml"/>
    </input>

    <output>
        <output-file value="/home/jwl/sumoproject/grid.net.xml"/>
    </output>

    <processing>
        <geometry.min-radius.fix.railways value="false"/>
        <geometry.max-grade.fix value="false"/>
        <offset.disable-normalization value="true"/>
        <lefthand value="false"/>
    </processing>

    <junctions>
        <no-internal-links value="false"/>
        <no-turnarounds value="true"/>
        <junctions.corner-detail value="5"/>
        <junctions.limit-turn-speed value="5.5"/>
        <rectangular-lane-cut value="false"/>
    </junctions>

    <pedestrian>
        <walkingareas value="false"/>
    </pedestrian>

    <netedit>
        <additional-files value="/home/jwl/sumoproject/add.add.xml"/>
        <route-files value="/home/jwl/sumoproject/route.rou.xml"/>
    </netedit>

    <report>
        <aggregate-warnings value="5"/>
    </report>

</configuration>
-->

<routes xmlns:xsi="http://www.w3.org/2001/XMLSchema-instance" xsi:noNamespaceSchemaLocation="http://sumo.dlr.de/xsd/routes_file.xsd">
    <vType id="bus" vClass="bus" emissionClass="HBEFA3/PC_G_EU4" width="1.80" height="1.50" color="yellow"/>
    <vType id="vType_0"/>
    <route edges="gneE25 gneE18 gneE19 gneE20 gneE21 gneE22 gneE23 gneE24" color="blue" id="route_0"/>
    <route edges="-gneE24 -gneE23 -gneE22 -gneE21 -gneE20 -gneE19 -gneE18 -gneE25" color="red" id="route_1"/>
</routes>
