<?xml version="1.0" encoding="UTF-8"?>

<!-- generated on 2023년 09월 20일 (수) 오후 03시 50분 38초 by Eclipse SUMO netedit Version 1.8.0
<configuration xmlns:xsi="http://www.w3.org/2001/XMLSchema-instance" xsi:noNamespaceSchemaLocation="http://sumo.dlr.de/xsd/netconvertConfiguration.xsd">

    <input>
        <sumo-net-file value="/home/jwl/sumoproject/grid.net.xml"/>
    </input>

    <output>
        <output-file value="/home/jwl/sumoproject/grid.net.xml"/>
    </output>

    <processing>
        <geometry.min-radius.fix.railways value="false"/>
        <geometry.max-grade.fix value="false"/>
        <offset.disable-normalization value="true"/>
        <lefthand value="false"/>
    </processing>

    <junctions>
        <no-internal-links value="false"/>
        <no-turnarounds value="true"/>
        <junctions.corner-detail value="5"/>
        <junctions.limit-turn-speed value="5.5"/>
        <rectangular-lane-cut value="false"/>
    </junctions>

    <pedestrian>
        <walkingareas value="false"/>
    </pedestrian>

    <netedit>
        <additional-files value="/home/jwl/sumoproject/add.add.xml"/>
        <route-files value="/home/jwl/sumoproject/route.rou.xml"/>
    </netedit>

    <report>
        <aggregate-warnings value="5"/>
    </report>

</configuration>
-->

<routes xmlns:xsi="http://www.w3.org/2001/XMLSchema-instance" xsi:noNamespaceSchemaLocation="http://sumo.dlr.de/xsd/routes_file.xsd">
    <vType id="bus" vClass="bus" emissionClass="HBEFA3/PC_G_EU4" width="1.80" height="1.50" color="red"/>
    <vType id="vType_0"/>
    <flow id="flow_0" type="bus" line="bus" begin="0.00" from="-gneE25" to="-gneE24" end="3600.00" number="50">
		<stop busStop="busStop_-gneE25_1_0" duration="20"/>
		<stop busStop="busStop_-gneE24_1_1" duration="20"/>
	</flow>
    <personFlow id="personFlow_0" begin="0.00" end="3600.00" number="1800">
        <walk from="-gneE25" busStop="busStop_-gneE25_1_0"/>
		<ride busStop="busStop_-gneE24_1_1" lines="bus"/>
		<walk to="-gneE24"/>
    </personFlow>
</routes>
